@<TRIPOS>MOLECULE
*****
 20 21 0 0 0
SMALL
GASTEIGER

@<TRIPOS>ATOM
      1 C           1.5000   -7.7942    0.0000 C.3     1  UNL1        0.0018
      2 C           0.7500   -6.4952    0.0000 C.3     1  UNL1        0.0199
      3 C          -0.7500   -6.4952    0.0000 C.3     1  UNL1        0.0018
      4 C           1.5000   -5.1962    0.0000 C.3     1  UNL1        0.0936
      5 N           0.7500   -3.8971    0.0000 N.am    1  UNL1       -0.2762
      6 C           1.5000   -2.5981    0.0000 C.2     1  UNL1        0.2512
      7 O           0.7500   -1.2990    0.0000 O.2     1  UNL1       -0.2698
      8 C           3.0000   -2.5981    0.0000 C.ar    1  UNL1        0.0818
      9 C           3.7500   -1.2990    0.0000 C.ar    1  UNL1        0.0068
     10 C           5.2500   -1.2990    0.0000 C.ar    1  UNL1        0.0012
     11 C           6.0000   -2.5981    0.0000 C.ar    1  UNL1        0.0137
     12 C           5.2500   -3.8971    0.0000 C.ar    1  UNL1        0.0852
     13 CL          6.0000   -5.1962    0.0000 Cl      1  UNL1       -0.0799
     14 C           3.7500   -3.8971    0.0000 C.ar    1  UNL1        0.1549
     15 F           3.0000   -5.1962    0.0000 F       1  UNL1       -0.2031
     16 C          -0.7500   -3.8971    0.0000 C.3     1  UNL1        0.0944
     17 C          -1.6317   -2.6836    0.0000 C.3     1  UNL1        0.0401
     18 C          -3.0583   -3.1471    0.0000 C.3     1  UNL1        0.0905
     19 N          -3.0583   -4.6471    0.0000 N.3     1  UNL1       -0.2162
     20 C          -1.6317   -5.1106    0.0000 C.3     1  UNL1        0.1084
@<TRIPOS>BOND
     1     1     2    1
     2     2     3    1
     3     2     4    1
     4     4     5    1
     5     5     6   am
     6     6     7    2
     7     6     8    1
     8     8     9   ar
     9     9    10   ar
    10    10    11   ar
    11    11    12   ar
    12    12    13    1
    13    12    14   ar
    14    14    15    1
    15    16     5    1
    16    16    17    1
    17    17    18    1
    18    18    19    1
    19    19    20    1
    20    14     8   ar
    21    20    16    1
